C:\Users\valentinc\Workspace\OpenFAST\simulations\Debug_Sigrid\master_thesis